*Heading
** Job name: Job-1 Model name: Model-1
** Generated by: Abaqus/CAE 2025.HF3
*Preprint, echo=NO, model=NO, history=NO, contact=NO
**
** PARTS
**
*Part, name=Fibre
*Node
      1,  0.374247253, -0.0814125091,           0.
      2,  0.358851731,  0.133844778,           0.
      3,  0.306607306,  0.229523346,           0.
      4,  0.133844778,  0.358851731,           0.
      5, -0.0814125091,  0.374247253,           0.
      6, -0.270821899,  0.270821899,           0.
      7, -0.374247253, 0.0814125091,           0.
      8, -0.358851731, -0.133844778,           0.
      9, -0.229523346, -0.306607306,           0.
     10, -0.133844778, -0.358851731,           0.
     11, 0.0814125091, -0.374247253,           0.
     12,  0.270821899, -0.270821899,           0.
     13,  0.336151063, -0.183552355,           0.
     14,  0.382024169,  0.027322907,           0.
     15,  0.229523346,  0.306607306,           0.
     16,  0.027322907,  0.382024169,           0.
     17, -0.183552355,  0.336151063,           0.
     18, -0.336151063,  0.183552355,           0.
     19, -0.382024169, -0.027322907,           0.
     20, -0.306607306, -0.229523346,           0.
** ... 4010 like lines cut
*Element, type=C3D8R
   1,   76,  105,   88,   87,   11,   40,   23,   22
   2,   89,   75,   74,  107,   24,   10,    9,   42
   3,   91,  101,  108,  125,   26,   36,   43,   60
   4,   81,   69,  121,   99,   16,    4,   56,   34
   5,  117,  130,  116,  129,   52,   65,   51,   64
   6,  109,  108,  101,   92,   44,   43,   36,   27
   7,   67,   79,   95,   94,    2,   14,   30,   29
   8,  127,  110,  111,  128,   62,   45,   46,   63
   9,   96,   78,   77,  124,   31,   13,   12,   59
  10,  104,  112,  126,  105,   39,   47,   61,   40
  11,  119,  117,  109,  113,   54,   52,   44,   48
  12,  108,  109,  117,  129,   43,   44,   52,   64
  13,  125,  114,  103,   90,   60,   49,   38,   25
  14,   75,   89,  104,   86,   10,   24,   39,   21
  15,   86,  104,  105,   76,   21,   39,   40,   11
  16,   87,   88,  124,   77,   22,   23,   59,   12
  17,  107,   74,   85,  103,   42,    9,   20,   38
  18,  103,   85,   73,   90,   38,   20,    8,   25
  19,   90,   73,   84,  102,   25,    8,   19,   37
  20,   84,   72,   91,  102,   19,    7,   26,   37
** ... 3213 like lines cut
*Nset, nset=Set-1, generate
    1,  4030,     1
*Elset, elset=Set-1, generate
    1,  3233,     1
** Section: Fibre
*Solid Section, elset=Set-1, material=Fibre
,
*End Part
**  
*Part, name=Matrice
*Node
      1,   33.8829994,       -17.25,           0.
      2,   33.7708206,  -16.9791775,           0.
      3,         33.5,  -16.8670006,           0.
      4,   33.2291794,  -16.9791775,           0.
      5,   33.1170006,       -17.25,           0.
      6,   33.2291794,  -17.5208225,           0.
      7,         33.5,  -17.6329994,           0.
      8,   33.7708206,  -17.5208225,           0.
      9,        36.25,        -14.5,           0.
     10,        30.75,        -14.5,           0.
     11,        36.25,         -20.,           0.
     12,        30.75,         -20.,           0.
     13,      35.5625,        -14.5,           0.
     14,       34.875,        -14.5,           0.
     15,      34.1875,        -14.5,           0.
     16,         33.5,        -14.5,           0.
     17,      32.8125,        -14.5,           0.
     18,       32.125,        -14.5,           0.
     19,      31.4375,        -14.5,           0.
     20,        36.25,     -19.3125,           0.
** ... 1476 like lines cut
*Element, type=C3D8R
   1,   30,   31,   68,   58,  166,  167,  204,  194
   2,   95,   50,   77,  101,  231,  186,  213,  237
   3,   49,   41,    7,   44,  185,  177,  143,  180
   4,   39,   71,   59,   38,  175,  207,  195,  174
   5,  109,   85,   75,   84,  245,  221,  211,  220
   6,   92,  110,  119,   69,  228,  246,  255,  205
   7,   81,   51,   42,   45,  217,  187,  178,  181
   8,  126,   46,    2,   53,  262,  182,  138,  189
   9,  127,    4,    3,   47,  263,  140,  139,  183
  10,   56,   43,    1,   48,  192,  179,  137,  184
  11,   61,  114,   94,  123,  197,  250,  230,  259
  12,   23,   24,   66,   60,  159,  160,  202,  196
  13,   13,  120,   26,    9,  149,  256,  162,  145
  14,   52,  125,   46,   76,  188,  261,  182,  212
  15,   62,   61,   14,   15,  198,  197,  150,  151
  16,   98,   55,   47,   82,  234,  191,  183,  218
  17,   82,   47,    3,  125,  218,  183,  139,  261
  18,  111,  136,  133,   98,  247,  272,  269,  234
  19,   64,   33,   11,   20,  200,  169,  147,  156
  20,   99,   56,   48,   78,  235,  192,  184,  214
** ... 1140 like lines cut
*Nset, nset=Set-1, generate
    1,  1496,     1
*Elset, elset=Set-1, generate
    1,  1160,     1
** Section: Matrice
*Solid Section, elset=Set-1, material=Matrice
,
*End Part
**  
**
** ASSEMBLY
**
*Assembly, name=Assembly
**  
*Instance, name=Part-1-1, part=Matrice
      -17.25,         33.5,         6.69
      -17.25,         33.5,         6.69, -16.5428932188134, 32.7928932188134,         6.69,         180.
*End Instance
**  
*Instance, name=Part-2-1, part=Fibre
*End Instance
**  
*Instance, name=Part-2-2, part=Fibre
*End Instance
**  
*Nset, nset=Set-1, instance=Part-1-1, generate
   9,  136,    1
*Elset, elset=Set-1, instance=Part-1-1, generate
   1,  116,    1
*Nset, nset=Set-2, instance=Part-1-1, generate
 1361,  1496,     1
*Elset, elset=Set-2, instance=Part-1-1, generate
 1045,  1160,     1
*Nset, nset=Set-3, instance=Part-1-1
   11,   12,   27,   28,   29,   30,   31,   32,   33,  147,  148,  163,  164,  165,  166,  167
  168,  169,  283,  284,  299,  300,  301,  302,  303,  304,  305,  419,  420,  435,  436,  437
  438,  439,  440,  441,  555,  556,  571,  572,  573,  574,  575,  576,  577,  691,  692,  707
  708,  709,  710,  711,  712,  713,  827,  828,  843,  844,  845,  846,  847,  848,  849,  963
  964,  979,  980,  981,  982,  983,  984,  985, 1099, 1100, 1115, 1116, 1117, 1118, 1119, 1120
 1121, 1235, 1236, 1251, 1252, 1253, 1254, 1255, 1256, 1257, 1371, 1372, 1387, 1388, 1389, 1390
 1391, 1392, 1393
*Elset, elset=Set-3, instance=Part-1-1
    1,   19,   24,   27,   29,   50,   64,  109,  117,  135,  140,  143,  145,  166,  180,  225
  233,  251,  256,  259,  261,  282,  296,  341,  349,  367,  372,  375,  377,  398,  412,  457
  465,  483,  488,  491,  493,  514,  528,  573,  581,  599,  604,  607,  609,  630,  644,  689
  697,  715,  720,  723,  725,  746,  760,  805,  813,  831,  836,  839,  841,  862,  876,  921
  929,  947,  952,  955,  957,  978,  992, 1037, 1045, 1063, 1068, 1071, 1073, 1094, 1108, 1153
*Nset, nset=Set-4, instance=Part-1-1
    9,   10,   13,   14,   15,   16,   17,   18,   19,  145,  146,  149,  150,  151,  152,  153
  154,  155,  281,  282,  285,  286,  287,  288,  289,  290,  291,  417,  418,  421,  422,  423
  424,  425,  426,  427,  553,  554,  557,  558,  559,  560,  561,  562,  563,  689,  690,  693
  694,  695,  696,  697,  698,  699,  825,  826,  829,  830,  831,  832,  833,  834,  835,  961
  962,  965,  966,  967,  968,  969,  970,  971, 1097, 1098, 1101, 1102, 1103, 1104, 1105, 1106
 1107, 1233, 1234, 1237, 1238, 1239, 1240, 1241, 1242, 1243, 1369, 1370, 1373, 1374, 1375, 1376
 1377, 1378, 1379
*Elset, elset=Set-4, instance=Part-1-1
   13,   15,   23,   30,   47,   58,   59,   67,  129,  131,  139,  146,  163,  174,  175,  183
  245,  247,  255,  262,  279,  290,  291,  299,  361,  363,  371,  378,  395,  406,  407,  415
  477,  479,  487,  494,  511,  522,  523,  531,  593,  595,  603,  610,  627,  638,  639,  647
  709,  711,  719,  726,  743,  754,  755,  763,  825,  827,  835,  842,  859,  870,  871,  879
  941,  943,  951,  958,  975,  986,  987,  995, 1057, 1059, 1067, 1074, 1091, 1102, 1103, 1111
*End Assembly
** 
** MATERIALS
** 
*Material, name=Fibre
*Elastic
200., 0.2
*Material, name=Matrice
*Elastic
25., 0.18
** 
** BOUNDARY CONDITIONS
** 
** Name: BC-1 Type: Symmetry/Antisymmetry/Encastre
*Boundary
Set-1, ENCASTRE
** Name: BC-2 Type: Displacement/Rotation
*Boundary
Set-2, 1, 1
Set-2, 2, 2
Set-2, 4, 4
Set-2, 5, 5
Set-2, 6, 6
** Name: BC-3 Type: Symmetry/Antisymmetry/Encastre
*Boundary
Set-3, XASYMM
** Name: BC-4 Type: Symmetry/Antisymmetry/Encastre
*Boundary
Set-4, XASYMM
** ----------------------------------------------------------------
** 
** STEP: Step-1
** 
*Step, name=Step-1, nlgeom=NO
*Static
1., 1., 1e-05, 1.
** 
** BOUNDARY CONDITIONS
** 
** Name: BC-2 Type: Displacement/Rotation
*Boundary
Set-2, 3, 3, -1.
** 
** OUTPUT REQUESTS
** 
*Restart, write, frequency=0
** 
** FIELD OUTPUT: F-Output-1
** 
*Output, field, variable=PRESELECT
** 
** HISTORY OUTPUT: H-Output-1
** 
*Output, history, variable=PRESELECT
*End Step
