*Heading
** TRC Macro Model 3D - Pour couplage DFE2
** Dimensions: 5.5 x 99.0 x 6.69 mm (L x W x H)
** Correspond à 1 x 18 x 1 = 18 VER
** Chaque VER: 5.5 x 5.5 x 6.69 mm
** Elements C3D8R (hexaedres lineaires, integration reduite)
** Maillage: 1 x 18 x 1 elements = 18 elements
** Noeuds: 76
**
*Preprint, echo=NO, model=NO, history=NO, contact=NO
**
** =============================================================
** PART DEFINITION - Macro plate (18 VER)
** =============================================================
**
*Part, name=MACRO_PLATE
*Node
     1,     0.000000,     0.000000,     0.000000
     2,     5.500000,     0.000000,     0.000000
     3,     0.000000,     5.500000,     0.000000
     4,     5.500000,     5.500000,     0.000000
     5,     0.000000,    11.000000,     0.000000
     6,     5.500000,    11.000000,     0.000000
     7,     0.000000,    16.500000,     0.000000
     8,     5.500000,    16.500000,     0.000000
     9,     0.000000,    22.000000,     0.000000
    10,     5.500000,    22.000000,     0.000000
    11,     0.000000,    27.500000,     0.000000
    12,     5.500000,    27.500000,     0.000000
    13,     0.000000,    33.000000,     0.000000
    14,     5.500000,    33.000000,     0.000000
    15,     0.000000,    38.500000,     0.000000
    16,     5.500000,    38.500000,     0.000000
    17,     0.000000,    44.000000,     0.000000
    18,     5.500000,    44.000000,     0.000000
    19,     0.000000,    49.500000,     0.000000
    20,     5.500000,    49.500000,     0.000000
** ... 56 like lines cut
**
*Element, type=C3D8R
    1,     1,     2,     4,     3,    39,    40,    42,    41
    2,     3,     4,     6,     5,    41,    42,    44,    43
    3,     5,     6,     8,     7,    43,    44,    46,    45
    4,     7,     8,    10,     9,    45,    46,    48,    47
    5,     9,    10,    12,    11,    47,    48,    50,    49
    6,    11,    12,    14,    13,    49,    50,    52,    51
    7,    13,    14,    16,    15,    51,    52,    54,    53
    8,    15,    16,    18,    17,    53,    54,    56,    55
    9,    17,    18,    20,    19,    55,    56,    58,    57
   10,    19,    20,    22,    21,    57,    58,    60,    59
   11,    21,    22,    24,    23,    59,    60,    62,    61
   12,    23,    24,    26,    25,    61,    62,    64,    63
   13,    25,    26,    28,    27,    63,    64,    66,    65
   14,    27,    28,    30,    29,    65,    66,    68,    67
   15,    29,    30,    32,    31,    67,    68,    70,    69
   16,    31,    32,    34,    33,    69,    70,    72,    71
   17,    33,    34,    36,    35,    71,    72,    74,    73
   18,    35,    36,    38,    37,    73,    74,    76,    75
**
** -------------------------------------------------------------
** NODE SETS
** -------------------------------------------------------------
*Nset, nset=FACE_X0
1, 3, 5, 7, 9, 11, 13, 15, 17, 19, 21, 23, 25, 27, 29, 31, 33, 35, 37, 39, 41, 43, 45, 47, 49, 51, 53, 55, 57, 59, 61, 63, 65, 67, 69, 71, 73, 75
*Nset, nset=FACE_XL
2, 4, 6, 8, 10, 12, 14, 16, 18, 20, 22, 24, 26, 28, 30, 32, 34, 36, 38, 40, 42, 44, 46, 48, 50, 52, 54, 56, 58, 60, 62, 64, 66, 68, 70, 72, 74, 76
*Nset, nset=FACE_Y0
1, 2, 39, 40
*Nset, nset=FACE_YW
37, 38, 75, 76
*Nset, nset=FACE_Z0
1, 2, 3, 4, 5, 6, 7, 8, 9, 10, 11, 12, 13, 14, 15, 16, 17, 18, 19, 20, 21, 22, 23, 24, 25, 26, 27, 28, 29, 30, 31, 32, 33, 34, 35, 36, 37, 38
*Nset, nset=FACE_ZH
39, 40, 41, 42, 43, 44, 45, 46, 47, 48, 49, 50, 51, 52, 53, 54, 55, 56, 57, 58, 59, 60, 61, 62, 63, 64, 65, 66, 67, 68, 69, 70, 71, 72, 73, 74, 75, 76
*Nset, nset=ALL_NODES, generate
 1, 76, 1
*Elset, elset=ALL_ELEMENTS, generate
 1, 18, 1
**
*End Part
**
** =============================================================
** ASSEMBLY
** =============================================================
**
*Assembly, name=Assembly
**
*Instance, name=PLATE-1, part=MACRO_PLATE
*End Instance
**
*End Assembly
**
** =============================================================
** MATERIALS (Placeholder - sera remplacé par réponse RVE)
** =============================================================
**
*Material, name=TRC_Homogenized
*Elastic
 51250., 0.183
**
** =============================================================
** SECTION ASSIGNMENT
** =============================================================
**
*Solid Section, elset=PLATE-1.ALL_ELEMENTS, material=TRC_Homogenized
 1.,
**
** =============================================================
** BOUNDARY CONDITIONS
** =============================================================
**
** Face X=0 fixée
*Boundary
PLATE-1.FACE_X0, ENCASTRE
**
** =============================================================
** STEP
** =============================================================
**
*Step, name=Step-1, nlgeom=NO
*Static
1., 1., 1e-05, 1.
**
** Déplacement imposé en X=L
*Boundary
PLATE-1.FACE_XL, 1, 1, 0.5
**
** OUTPUT REQUESTS
**
*Restart, write, frequency=0
**
*Output, field
*Node Output
U, RF
*Element Output
S, E, IVOL
**
*End Step
