*Heading
** TRC Macro Model - Corrected Version
** Modèle simplifié pour validation avant FE2
** Matériau homogénéisé: MATRICE (béton) avec propriétés demandées
** Encastrement en y=0, Déplacement imposé 1mm en y=99
**
*Preprint, echo=NO, model=NO, history=NO, contact=NO
**
** =============================================================
** PART: MACRO MODEL (poutre TRC)
** =============================================================
*Part, name=BEAM
*Node
     1,   0.0000000000,   0.0000000000,   0.0000000000
     2,   5.5000000000,   0.0000000000,   0.0000000000
     3,   0.0000000000,   5.5000000000,   0.0000000000
     4,   5.5000000000,   5.5000000000,   0.0000000000
     5,   0.0000000000,  11.0000000000,   0.0000000000
     6,   5.5000000000,  11.0000000000,   0.0000000000
     7,   0.0000000000,  16.5000000000,   0.0000000000
     8,   5.5000000000,  16.5000000000,   0.0000000000
     9,   0.0000000000,  22.0000000000,   0.0000000000
    10,   5.5000000000,  22.0000000000,   0.0000000000
    11,   0.0000000000,  27.5000000000,   0.0000000000
    12,   5.5000000000,  27.5000000000,   0.0000000000
    13,   0.0000000000,  33.0000000000,   0.0000000000
    14,   5.5000000000,  33.0000000000,   0.0000000000
    15,   0.0000000000,  38.5000000000,   0.0000000000
    16,   5.5000000000,  38.5000000000,   0.0000000000
    17,   0.0000000000,  44.0000000000,   0.0000000000
    18,   5.5000000000,  44.0000000000,   0.0000000000
    19,   0.0000000000,  49.5000000000,   0.0000000000
    20,   5.5000000000,  49.5000000000,   0.0000000000
** ... 56 like lines cut
**
*Element, type=C3D8R
     1,      1,      2,      4,      3,     39,     40,     42,     41
     2,      3,      4,      6,      5,     41,     42,     44,     43
     3,      5,      6,      8,      7,     43,     44,     46,     45
     4,      7,      8,     10,      9,     45,     46,     48,     47
     5,      9,     10,     12,     11,     47,     48,     50,     49
     6,     11,     12,     14,     13,     49,     50,     52,     51
     7,     13,     14,     16,     15,     51,     52,     54,     53
     8,     15,     16,     18,     17,     53,     54,     56,     55
     9,     17,     18,     20,     19,     55,     56,     58,     57
    10,     19,     20,     22,     21,     57,     58,     60,     59
    11,     21,     22,     24,     23,     59,     60,     62,     61
    12,     23,     24,     26,     25,     61,     62,     64,     63
    13,     25,     26,     28,     27,     63,     64,     66,     65
    14,     27,     28,     30,     29,     65,     66,     68,     67
    15,     29,     30,     32,     31,     67,     68,     70,     69
    16,     31,     32,     34,     33,     69,     70,     72,     71
    17,     33,     34,     36,     35,     71,     72,     74,     73
    18,     35,     36,     38,     37,     73,     74,     76,     75
**
** Node sets for boundary conditions
*Nset, nset=NSET_BOTTOM, generate
  1, 2, 1
 39, 40, 1
*Nset, nset=NSET_TOP, generate
 37, 38, 1
 75, 76, 1
*Nset, nset=NSET_ALL, generate
  1, 76, 1
**
** Element set
*Elset, elset=ELSET_ALL, generate
  1, 18, 1
**
** Section assignment
*Solid Section, elset=ELSET_ALL, material=TRC_HOMOGENISE
,
*End Part
**
** =============================================================
** ASSEMBLY
** =============================================================
*Assembly, name=Assembly
**
*Instance, name=BEAM-1, part=BEAM
*End Instance
**
** Assembly node sets for BC
*Nset, nset=BC_ENCASTRE, instance=BEAM-1
  1, 2, 39, 40
*Nset, nset=BC_DEPLACEMENT, instance=BEAM-1
 37, 38, 75, 76
**
*End Assembly
**
** =============================================================
** MATERIALS
** =============================================================
**
** Matériau homogénéisé TRC (composite matrice + fibre)
** Propriétés moyennées basées sur:
** - MATRICE (béton): E=30000 MPa, nu=0.2
** - FIBRE (verre): E=72000 MPa, nu=0.22
** Fraction volumique fibre ~5%: E_eff ≈ 32100 MPa
*Material, name=TRC_HOMOGENISE
*Elastic
32100., 0.2
**
** Matériau MATRICE seul (béton)
*Material, name=MATRICE
*Elastic
30000., 0.2
**
** Matériau FIBRE seul (verre)
*Material, name=FIBRE
*Elastic
72000., 0.22
**
** =============================================================
** BOUNDARY CONDITIONS
** =============================================================
**
** Encastrement sur la face y=0 (nœuds 1, 2, 39, 40)
*Boundary
BC_ENCASTRE, ENCASTRE
**
** =============================================================
** STEP
** =============================================================
*Step, name=Step-1, nlgeom=NO
*Static
0.1, 1., 1e-05, 0.1
**
** Déplacement imposé de 1mm en direction Y sur face y=99
*Boundary
BC_DEPLACEMENT, 2, 2, 1.0
**
** OUTPUT REQUESTS
*Restart, write, frequency=0
**
** FIELD OUTPUT
*Output, field
*Node Output
U, RF
*Element Output, directions=YES
S, E, MISES
**
** HISTORY OUTPUT
*Output, history, variable=PRESELECT
*End Step
