*Heading
** Job name: TRC_Macro_Plate Model name: TRC_Plate_Macro
** Modelisation Macroscopique d'une Plaque TRC (Textile Reinforced Concrete)
** Approche multi-echelle: Proprietes homogeneisees issues de la microstructure
** 
** Microstructure de reference: Job-1.inp
** - Fibre: E = 200 GPa, nu = 0.2
** - Matrice: E = 25 GPa, nu = 0.18
** 
** Dimensions plaque: 550 x 99 x 7.5 mm
** Generated by: Abaqus Input File (Manual)
*Preprint, echo=NO, model=NO, history=NO, contact=NO
**
** ============================================================
** PARTS
** ============================================================
**
*Part, name=TRC_Plate
**
** ------------------------------------
** NODES - Plaque rectangulaire 550 x 99 mm
** Maillage: 55 x 10 elements (dx=10mm, dy=9.9mm)
** ------------------------------------
*Node
      1,           0.,           0.,           0.
      2,          10.,           0.,           0.
      3,          20.,           0.,           0.
      4,          30.,           0.,           0.
      5,          40.,           0.,           0.
      6,          50.,           0.,           0.
      7,          60.,           0.,           0.
      8,          70.,           0.,           0.
      9,          80.,           0.,           0.
     10,          90.,           0.,           0.
     11,         100.,           0.,           0.
     12,         110.,           0.,           0.
     13,         120.,           0.,           0.
     14,         130.,           0.,           0.
     15,         140.,           0.,           0.
     16,         150.,           0.,           0.
     17,         160.,           0.,           0.
     18,         170.,           0.,           0.
     19,         180.,           0.,           0.
     20,         190.,           0.,           0.
** ... 596 like lines cut
**
** ------------------------------------
** ELEMENTS - S4R Shell Elements (55 x 10 = 550 elements)
** ------------------------------------
*Element, type=S4R
  1,   1,   2,  58,  57
  2,   2,   3,  59,  58
  3,   3,   4,  60,  59
  4,   4,   5,  61,  60
  5,   5,   6,  62,  61
  6,   6,   7,  63,  62
  7,   7,   8,  64,  63
  8,   8,   9,  65,  64
  9,   9,  10,  66,  65
 10,  10,  11,  67,  66
 11,  11,  12,  68,  67
 12,  12,  13,  69,  68
 13,  13,  14,  70,  69
 14,  14,  15,  71,  70
 15,  15,  16,  72,  71
 16,  16,  17,  73,  72
 17,  17,  18,  74,  73
 18,  18,  19,  75,  74
 19,  19,  20,  76,  75
 20,  20,  21,  77,  76
** ... 530 like lines cut
**
** ------------------------------------
** NODE SETS
** ------------------------------------
*Nset, nset=All_Nodes, generate
   1,  616,    1
*Nset, nset=Left_Edge
   1, 57, 113, 169, 225, 281, 337, 393, 449, 505, 561
*Nset, nset=Right_Edge
  56, 112, 168, 224, 280, 336, 392, 448, 504, 560, 616
*Nset, nset=Bottom_Edge, generate
   1,  56,   1
*Nset, nset=Top_Edge, generate
 561, 616,   1
**
** ------------------------------------
** ELEMENT SETS
** ------------------------------------
*Elset, elset=All_Elements, generate
   1, 550,   1
**
** ------------------------------------
** SECTION SHELL - Epaisseur 7.5 mm
** ------------------------------------
*Shell Section, elset=All_Elements, material=TRC_Homogenized
7.5, 5
*End Part
**
** ============================================================
** ASSEMBLY
** ============================================================
**
*Assembly, name=Assembly
**
*Instance, name=TRC_Plate-1, part=TRC_Plate
*End Instance
**
** Boundary sets at assembly level
*Nset, nset=BC_Left, instance=TRC_Plate-1
   1, 57, 113, 169, 225, 281, 337, 393, 449, 505, 561
*Nset, nset=BC_Right, instance=TRC_Plate-1
  56, 112, 168, 224, 280, 336, 392, 448, 504, 560, 616
**
*End Assembly
**
** ============================================================
** MATERIALS - Proprietes Homogeneisees
** ============================================================
**
** Le materiau TRC homogeneise est obtenu par moyenne volumique
** de la microstructure (fibre + matrice)
**
** Microstructure:
**   - Fibre: E = 200 GPa, nu = 0.2 (verre ou carbone)
**   - Matrice: E = 25 GPa, nu = 0.18 (mortier/ciment)
**   - Fraction volumique fibres: ~15% (typique pour TRC)
**
** Proprietes effectives (loi des melanges modifiee):
**   E_eff = Vf*Ef + Vm*Em = 0.15*200 + 0.85*25 = 51.25 GPa
**   nu_eff = Vf*nuf + Vm*num = 0.15*0.2 + 0.85*0.18 = 0.183
**
** Pour un comportement orthotrope plus realiste (fibres unidirectionnelles):
**   E1 (longitudinal) ~ 51 GPa
**   E2 (transverse) ~ 30 GPa
**   G12 ~ 12 GPa
**   nu12 ~ 0.18
**
** ============================================================
** Option 1: Materiau isotrope simplifie
** ============================================================
*Material, name=TRC_Homogenized
*Density
2.0e-9
*Elastic
51250., 0.183
**
** ============================================================
** Option 2: Materiau orthotrope (decommenter si necessaire)
** ============================================================
** Pour utiliser les proprietes orthotropes, decommenter ci-dessous
** et commenter la section isotrope ci-dessus
**
** *Material, name=TRC_Homogenized_Ortho
** *Density
** 2.0e-9
** *Elastic, type=ENGINEERING CONSTANTS
** ** E1,     E2,     E3,     Nu12,  Nu13,  Nu23,  G12,    G13
** 51250., 30000., 30000., 0.183, 0.183, 0.25, 12000., 12000.
** ** G23
** 10000.
**
** ============================================================
** BOUNDARY CONDITIONS
** ============================================================
**
** Encastrement du cote gauche (x=0)
*Boundary
BC_Left, ENCASTRE
**
** ============================================================
** STEP 1: Traction uniaxiale
** ============================================================
**
*Step, name=Step-Traction, nlgeom=YES
Essai de traction uniaxiale - deplacement impose 5mm
*Static
0.1, 1., 1e-05, 0.1
**
** Deplacement impose sur le cote droit
*Boundary
BC_Right, 1, 1, 5.0
**
** ============================================================
** OUTPUT REQUESTS
** ============================================================
**
*Restart, write, frequency=0
**
** Field Output
*Output, field, variable=PRESELECT
*Output, field
*Node Output
U, RF
*Element Output, directions=YES
S, E, MISES, PEMAG
**
** History Output
*Output, history, variable=PRESELECT
*Output, history
*Node Output, nset=BC_Right
RF1, U1
**
*End Step
**
** ============================================================
** STEP 2: Flexion (optionnel - decommenter si necessaire)
** ============================================================
**
** *Step, name=Step-Flexion, nlgeom=YES
** Essai de flexion 3 points
** *Static
** 0.1, 1., 1e-05, 0.1
** **
** ** Appui simple au centre
** *Boundary
** Set-Center, 3, 3, -2.0
** **
** *Output, field, variable=PRESELECT
** *End Step
**
** ============================================================
** FIN DU FICHIER
** ============================================================
