*Heading
** TRC FE2 Model - Version CORRIGÉE avec éléments MASS
** Résolution du problème: "nodes missing degree of freedoms"
** Solution: Ajout d'éléments MASS aux nœuds de référence 1076-1219
** 
** Matériaux:
** - MATRICE (béton): E=30000 MPa, nu=0.2
** - FIBRE (verre): E=72000 MPa, nu=0.22
**
** Conditions aux limites:
** - Encastrement: face y=0
** - Déplacement imposé: 1mm en Y sur face y=99
**
*Preprint, echo=NO, model=NO, history=NO, contact=NO
**
** =============================================================
** PART: MACRO MODEL (beam)
** =============================================================
*Part, name=BEAM
*Node
     1,   0.0000000000,   0.0000000000,   0.0000000000
     2,   5.5000000000,   0.0000000000,   0.0000000000
     3,   0.0000000000,   5.5000000000,   0.0000000000
     4,   5.5000000000,   5.5000000000,   0.0000000000
     5,   0.0000000000,  11.0000000000,   0.0000000000
     6,   5.5000000000,  11.0000000000,   0.0000000000
     7,   0.0000000000,  16.5000000000,   0.0000000000
     8,   5.5000000000,  16.5000000000,   0.0000000000
     9,   0.0000000000,  22.0000000000,   0.0000000000
    10,   5.5000000000,  22.0000000000,   0.0000000000
    11,   0.0000000000,  27.5000000000,   0.0000000000
    12,   5.5000000000,  27.5000000000,   0.0000000000
    13,   0.0000000000,  33.0000000000,   0.0000000000
    14,   5.5000000000,  33.0000000000,   0.0000000000
    15,   0.0000000000,  38.5000000000,   0.0000000000
    16,   5.5000000000,  38.5000000000,   0.0000000000
    17,   0.0000000000,  44.0000000000,   0.0000000000
    18,   5.5000000000,  44.0000000000,   0.0000000000
    19,   0.0000000000,  49.5000000000,   0.0000000000
    20,   5.5000000000,  49.5000000000,   0.0000000000
** ... 56 like lines cut
**
** Reference nodes for macro-micro coupling (centroïdes des éléments)
** Ces nœuds étaient orphelins - maintenant connectés via éléments MASS
  1076,   2.7500000000,   2.7500000000,   3.3450000000
  1077,   2.7500000000,   2.7500000000,   3.3450000000
  1078,   2.7500000000,   2.7500000000,   3.3450000000
  1079,   2.7500000000,   2.7500000000,   3.3450000000
  1080,   2.7500000000,   2.7500000000,   3.3450000000
  1081,   2.7500000000,   2.7500000000,   3.3450000000
  1082,   2.7500000000,   2.7500000000,   3.3450000000
  1083,   2.7500000000,   2.7500000000,   3.3450000000
  1084,   2.7500000000,   8.2500000000,   3.3450000000
  1085,   2.7500000000,   8.2500000000,   3.3450000000
  1086,   2.7500000000,   8.2500000000,   3.3450000000
  1087,   2.7500000000,   8.2500000000,   3.3450000000
  1088,   2.7500000000,   8.2500000000,   3.3450000000
  1089,   2.7500000000,   8.2500000000,   3.3450000000
  1090,   2.7500000000,   8.2500000000,   3.3450000000
  1091,   2.7500000000,   8.2500000000,   3.3450000000
  1092,   2.7500000000,  13.7500000000,   3.3450000000
  1093,   2.7500000000,  13.7500000000,   3.3450000000
  1094,   2.7500000000,  13.7500000000,   3.3450000000
  1095,   2.7500000000,  13.7500000000,   3.3450000000
** ... 124 like lines cut
**
** Solid elements (macro)
*Element, type=C3D8R
     1,      1,      2,      4,      3,     39,     40,     42,     41
     2,      3,      4,      6,      5,     41,     42,     44,     43
     3,      5,      6,      8,      7,     43,     44,     46,     45
     4,      7,      8,     10,      9,     45,     46,     48,     47
     5,      9,     10,     12,     11,     47,     48,     50,     49
     6,     11,     12,     14,     13,     49,     50,     52,     51
     7,     13,     14,     16,     15,     51,     52,     54,     53
     8,     15,     16,     18,     17,     53,     54,     56,     55
     9,     17,     18,     20,     19,     55,     56,     58,     57
    10,     19,     20,     22,     21,     57,     58,     60,     59
    11,     21,     22,     24,     23,     59,     60,     62,     61
    12,     23,     24,     26,     25,     61,     62,     64,     63
    13,     25,     26,     28,     27,     63,     64,     66,     65
    14,     27,     28,     30,     29,     65,     66,     68,     67
    15,     29,     30,     32,     31,     67,     68,     70,     69
    16,     31,     32,     34,     33,     69,     70,     72,     71
    17,     33,     34,     36,     35,     71,     72,     74,     73
    18,     35,     36,     38,     37,     73,     74,     76,     75
**
** =============================================================
** MASS ELEMENTS pour les nœuds de référence (CORRECTION)
** Ces éléments donnent des DDL aux nœuds orphelins 1076-1219
** Numérotation: éléments 2001-2144 (pour éviter conflits)
** =============================================================
*Element, type=MASS
  2001, 1076
  2002, 1077
  2003, 1078
  2004, 1079
  2005, 1080
  2006, 1081
  2007, 1082
  2008, 1083
  2009, 1084
  2010, 1085
  2011, 1086
  2012, 1087
  2013, 1088
  2014, 1089
  2015, 1090
  2016, 1091
  2017, 1092
  2018, 1093
  2019, 1094
  2020, 1095
** ... 124 like lines cut
**
** Node sets
*Nset, nset=NSET_BOTTOM
  1, 2, 39, 40
*Nset, nset=NSET_TOP
 37, 38, 75, 76
*Nset, nset=RP_NODES, generate
 1076, 1219, 1
**
** Element sets
*Elset, elset=ELSET_SOLID, generate
  1, 18, 1
*Elset, elset=ELSET_MASS, generate
  2001, 2144, 1
**
** Section assignment - Solid
*Solid Section, elset=ELSET_SOLID, material=MATRICE
,
**
** Section assignment - Mass (masse très petite, juste pour DDL)
*Mass, elset=ELSET_MASS
1.0e-12,
**
*End Part
**
** =============================================================
** ASSEMBLY
** =============================================================
*Assembly, name=Assembly
**
*Instance, name=BEAM-1, part=BEAM
*End Instance
**
** Boundary condition sets
*Nset, nset=BC_ENCASTRE, instance=BEAM-1
  1, 2, 39, 40
*Nset, nset=BC_DEPLACEMENT, instance=BEAM-1
 37, 38, 75, 76
**
*End Assembly
**
** =============================================================
** MATERIALS
** =============================================================
**
** Matériau MATRICE (béton)
*Material, name=MATRICE
*Elastic
30000., 0.2
**
** Matériau FIBRE (verre) - pour référence
*Material, name=FIBRE
*Elastic
72000., 0.22
**
** =============================================================
** BOUNDARY CONDITIONS (Initial)
** =============================================================
**
** Encastrement sur la face y=0
*Boundary
BC_ENCASTRE, ENCASTRE
**
** =============================================================
** STEP
** =============================================================
*Step, name=Step-1, nlgeom=NO
*Static
0.1, 1., 1e-05, 0.1
**
** Déplacement imposé de 1mm en direction Y sur face y=99
*Boundary
BC_DEPLACEMENT, 2, 2, 1.0
**
** OUTPUT REQUESTS
*Restart, write, frequency=0
**
** FIELD OUTPUT
*Output, field
*Node Output
U, RF
*Element Output, directions=YES
S, E, MISES
**
** HISTORY OUTPUT
*Output, history, variable=PRESELECT
*End Step
